data_image0
_cell_length_a       5.1456
_cell_length_b       5.1456
_cell_length_c       5.1456
_cell_angle_alpha    56.652
_cell_angle_beta     56.652
_cell_angle_gamma    56.652

_symmetry_space_group_name_H-M    "P 1"
_symmetry_int_tables_number       1

loop_
  _symmetry_equiv_pos_as_xyz
  'x, y, z'

loop_
  _atom_site_label
  _atom_site_occupancy
  _atom_site_fract_x
  _atom_site_fract_y
  _atom_site_fract_z
  _atom_site_thermal_displace_type
  _atom_site_B_iso_or_equiv
  _atom_site_type_symbol
  Ir1      1.0000 0.25001  0.25001  0.25001  Biso   1.000  Ir
  Ir2      1.0000 0.74999  0.74999  0.74999  Biso   1.000  Ir
  O1       1.0000 0.34311  0.65689  0.00000  Biso   1.000  O
  O2       1.0000 0.84312  0.50000  0.15688  Biso   1.000  O
  O3       1.0000 0.65689  0.00000  0.34311  Biso   1.000  O
  O4       1.0000 0.15688  0.84312  0.50000  Biso   1.000  O
  O5       1.0000 0.00000  0.34311  0.65689  Biso   1.000  O
  O6       1.0000 0.50000  0.15688  0.84312  Biso   1.000  O
